<edges>
    <edge id="C1" from="node0" to="node1" priority="1">
        <lane index="0" speed="33.333333" length="150" shape="-391.744072,-50.008059 -390.865891,-49.529730 -389.986517,-49.053599 -389.105956,-48.579668 -388.224212,-48.107940 -387.341292,-47.638417 -386.457200,-47.171104 -385.571944,-46.706002 -384.685527,-46.243114 -383.797956,-45.782444 -382.909236,-45.323995 -382.019372,-44.867768 -381.128371,-44.413768 -380.236237,-43.961997 -379.342977,-43.512457 -378.448596,-43.065152 -377.553099,-42.620084 -376.656493,-42.177257 -375.758782,-41.736672 -374.859973,-41.298333 -373.960070,-40.862242 -373.059080,-40.428403 -372.157009,-39.996817 -371.253861,-39.567488 -370.349643,-39.140418 -369.444360,-38.715610 -368.538017,-38.293066 -367.630621,-37.872790 -366.722178,-37.454783 -365.812692,-37.039049 -364.902169,-36.625590 -363.990616,-36.214409 -363.078038,-35.805507 -362.164440,-35.398888 -361.249829,-34.994555 -360.334209,-34.592509 -359.417588,-34.192754 -358.499970,-33.795292 -357.581361,-33.400124 -356.661767,-33.007255 -355.741194,-32.616686 -354.819647,-32.228419 -353.897132,-31.842458 -352.973656,-31.458803 -352.049223,-31.077459 -351.123839,-30.698427 -350.197511,-30.321710 -349.270244,-29.947310 -348.342044,-29.575229 -347.412917,-29.205470 -346.482868,-28.838034 -345.551904,-28.472925 -344.620029,-28.110145 -343.687251,-27.749695 -342.753574,-27.391579 -341.819005,-27.035798 -340.883550,-26.682354 -339.947214,-26.331250 -339.010003,-25.982488 -338.071923,-25.636070 -337.132980,-25.291998 -336.193179,-24.950275 -335.252528,-24.610902 -334.311030,-24.273882 -333.368694,-23.939217 -332.425523,-23.606909 -331.481525,-23.276959 -330.536704,-22.949371 -329.591068,-22.624146 -328.644622,-22.301286 -327.697371,-21.980793 -326.749322,-21.662669 -325.800481,-21.346916 -324.850853,-21.033536 -323.900445,-20.722532 -322.949262,-20.413904 -321.997311,-20.107655 -321.044597,-19.803787 -320.091127,-19.502302 -319.136905,-19.203202 -318.181939,-18.906488 -317.226234,-18.612162 -316.269797,-18.320226 -315.312632,-18.030683 -314.354747,-17.743533 -313.396146,-17.458779 -312.436837,-17.176422 -311.476825,-16.896465 -310.516116,-16.618908 -309.554716,-16.343754 -308.592631,-16.071004 -307.629868,-15.800661 -306.666431,-15.532725 -305.702328,-15.267198 -304.737564,-15.004083 -303.772145,-14.743380 -302.806077,-14.485092 -301.839367,-14.229220 -300.872020,-13.975765 -299.904043,-13.724729 -298.935440,-13.476115 -297.966220,-13.229922 -296.996387,-12.986153 -296.025947,-12.744810 -295.054907,-12.505893 -294.083273,-12.269405 -293.111051,-12.035347 -292.138246,-11.803720 -291.164866,-11.574525 -290.190916,-11.347765 -289.216401,-11.123440 -288.241330,-10.901553 -287.265706,-10.682104 -286.289537,-10.465094 -285.312828,-10.250526 -284.335586,-10.038400 -283.357817,-9.828717 -282.379526,-9.621480 -281.400721,-9.416689 -280.421406,-9.214346 -279.441589,-9.014452 -278.461275,-8.817008 -277.480471,-8.622015 -276.499182,-8.429475 -275.517415,-8.239389 -274.535175,-8.051758 -273.552470,-7.866583 -272.569305,-7.683865 -271.585686,-7.503606 -270.601620,-7.325807 -269.617112,-7.150468 -268.632169,-6.977591 -267.646796,-6.807176 -266.661001,-6.639226 -265.674789,-6.473741 -264.688166,-6.310722 -263.701139,-6.150170 -262.713714,-5.992086 -261.725896,-5.836471 -260.737693,-5.683326 -259.749110,-5.532652 -258.760153,-5.384450 -257.770829,-5.238721 -256.781143,-5.095466 -255.791103,-4.954685 -254.800713,-4.816380 -253.809981,-4.680551 -252.818913,-4.547199 -251.827514,-4.416326 -250.835791,-4.287931 -249.843750,-4.162016 "/>
    </edge>
    <edge id="B2" from="node1" to="node2" priority="1">
        <lane index="0" speed="33.333333" length="100" shape="-248.985626,-4.042912 -247.992980,-3.921633 -247.000041,-3.802804 -246.006816,-3.686400 -245.013314,-3.572396 -244.019545,-3.460767 -243.025516,-3.351487 -242.031236,-3.244533 -240.969604,-3.139879 -239.974845,-3.037500 -238.979858,-2.937371 -237.984651,-2.839467 -236.989231,-2.743763 -235.993605,-2.650233 -234.997780,-2.558854 -234.001763,-2.469600 -233.005561,-2.382446 -232.009181,-2.297367 -231.012628,-2.214337 -230.015909,-2.133333 -229.019030,-2.054329 -228.021997,-1.977300 -227.024815,-1.902221 -226.027491,-1.829067 -225.030030,-1.757813 -224.032437,-1.688433 -222.967608,-1.620904 -221.969767,-1.555200 -220.971809,-1.491296 -219.973739,-1.429167 -218.975562,-1.368788 -217.977282,-1.310133 -216.978904,-1.253179 -215.980432,-1.197900 -214.981870,-1.144271 -213.983223,-1.092267 -212.984493,-1.041862 -211.985685,-0.993033 -210.986803,-0.945754 -209.987850,-0.900000 -208.988829,-0.855746 -207.989744,-0.812967 -206.990599,-0.771637 -205.991395,-0.731733 -204.992136,-0.693229 -203.992826,-0.656100 -202.993466,-0.620321 -201.994059,-0.585867 -200.994609,-0.552713 -199.995117,-0.520833 -198.995586,-0.490204 -197.996019,-0.460800 -196.996416,-0.432596 -195.996782,-0.405567 -194.997117,-0.379687 -193.997423,-0.354933 -192.997703,-0.331279 -191.997958,-0.308700 -190.998190,-0.287171 -189.998400,-0.266667 -188.998590,-0.247163 -187.998762,-0.228633 -186.998917,-0.211054 -185.999055,-0.194400 -184.999179,-0.178646 -183.999290,-0.163767 -182.999389,-0.149738 -181.999476,-0.136533 -180.999553,-0.124129 -179.999620,-0.112500 -178.999680,-0.101621 -177.999731,-0.091467 -176.999776,-0.082012 -175.999814,-0.073233 -174.999847,-0.065104 -173.999876,-0.057600 -172.999899,-0.050696 -171.999919,-0.044367 -170.999936,-0.038587 -169.999950,-0.033333 -168.999961,-0.028579 -167.999970,-0.024300 -166.999978,-0.020471 -165.999984,-0.017067 -164.999988,-0.014062 -163.999992,-0.011433 -162.999994,-0.009154 -161.999996,-0.007200 -160.999997,-0.005546 -159.999998,-0.004167 -158.999999,-0.003037 -157.999999,-0.002133 -157.000000,-0.001429 -156.000000,-0.000900 -155.000000,-0.000521 -154.000000,-0.000267 -153.000000,-0.000112 -152.000000,-0.000033 -151.000000,-0.000004 -150.000000,-0.000000 "/>
    </edge>
    <edge id="A3" from="node2" to="node3" priority="1">
        <lane index="0" speed="33.333333" length="300" shape="-150.000000,0.000000 -149.000000,0.000000 -148.000000,0.000000 -147.000000,0.000000 -146.000000,0.000000 -145.000000,0.000000 -144.000000,0.000000 -143.000000,0.000000 -142.000000,0.000000 -141.000000,0.000000 -140.000000,0.000000 -139.000000,0.000000 -138.000000,0.000000 -137.000000,0.000000 -136.000000,0.000000 -135.000000,0.000000 -134.000000,0.000000 -133.000000,0.000000 -132.000000,0.000000 -131.000000,0.000000 -130.000000,0.000000 -129.000000,0.000000 -128.000000,0.000000 -127.000000,0.000000 -126.000000,0.000000 -125.000000,0.000000 -124.000000,0.000000 -123.000000,0.000000 -122.000000,0.000000 -121.000000,0.000000 -120.000000,0.000000 -119.000000,0.000000 -118.000000,0.000000 -117.000000,0.000000 -116.000000,0.000000 -115.000000,0.000000 -114.000000,0.000000 -113.000000,0.000000 -112.000000,0.000000 -111.000000,0.000000 -110.000000,0.000000 -109.000000,0.000000 -108.000000,0.000000 -107.000000,0.000000 -106.000000,0.000000 -105.000000,0.000000 -104.000000,0.000000 -103.000000,0.000000 -102.000000,0.000000 -101.000000,0.000000 -100.000000,0.000000 -99.000000,0.000000 -98.000000,0.000000 -97.000000,0.000000 -96.000000,0.000000 -95.000000,0.000000 -94.000000,0.000000 -93.000000,0.000000 -92.000000,0.000000 -91.000000,0.000000 -90.000000,0.000000 -89.000000,0.000000 -88.000000,0.000000 -87.000000,0.000000 -86.000000,0.000000 -85.000000,0.000000 -84.000000,0.000000 -83.000000,0.000000 -82.000000,0.000000 -81.000000,0.000000 -80.000000,0.000000 -79.000000,0.000000 -78.000000,0.000000 -77.000000,0.000000 -76.000000,0.000000 -75.000000,0.000000 -74.000000,0.000000 -73.000000,0.000000 -72.000000,0.000000 -71.000000,0.000000 -70.000000,0.000000 -69.000000,0.000000 -68.000000,0.000000 -67.000000,0.000000 -66.000000,0.000000 -65.000000,0.000000 -64.000000,0.000000 -63.000000,0.000000 -62.000000,0.000000 -61.000000,0.000000 -60.000000,0.000000 -59.000000,0.000000 -58.000000,0.000000 -57.000000,0.000000 -56.000000,0.000000 -55.000000,0.000000 -54.000000,0.000000 -53.000000,0.000000 -52.000000,0.000000 -51.000000,0.000000 -50.000000,0.000000 -49.000000,0.000000 -48.000000,0.000000 -47.000000,0.000000 -46.000000,0.000000 -45.000000,0.000000 -44.000000,0.000000 -43.000000,0.000000 -42.000000,0.000000 -41.000000,0.000000 -40.000000,0.000000 -39.000000,0.000000 -38.000000,0.000000 -37.000000,0.000000 -36.000000,0.000000 -35.000000,0.000000 -34.000000,0.000000 -33.000000,0.000000 -32.000000,0.000000 -31.000000,0.000000 -30.000000,0.000000 -29.000000,0.000000 -28.000000,0.000000 -27.000000,0.000000 -26.000000,0.000000 -25.000000,0.000000 -24.000000,0.000000 -23.000000,0.000000 -22.000000,0.000000 -21.000000,0.000000 -20.000000,0.000000 -19.000000,0.000000 -18.000000,0.000000 -17.000000,0.000000 -16.000000,0.000000 -15.000000,0.000000 -14.000000,0.000000 -13.000000,0.000000 -12.000000,0.000000 -11.000000,0.000000 -10.000000,0.000000 -9.000000,0.000000 -8.000000,0.000000 -7.000000,0.000000 -6.000000,0.000000 -5.000000,0.000000 -4.000000,0.000000 -3.000000,0.000000 -2.000000,0.000000 -1.000000,0.000000 0.000000,0.000000 1.000000,0.000000 2.000000,0.000000 3.000000,0.000000 4.000000,0.000000 5.000000,0.000000 6.000000,0.000000 7.000000,0.000000 8.000000,0.000000 9.000000,0.000000 10.000000,0.000000 11.000000,0.000000 12.000000,0.000000 13.000000,0.000000 14.000000,0.000000 15.000000,0.000000 16.000000,0.000000 17.000000,0.000000 18.000000,0.000000 19.000000,0.000000 20.000000,0.000000 21.000000,0.000000 22.000000,0.000000 23.000000,0.000000 24.000000,0.000000 25.000000,0.000000 26.000000,0.000000 27.000000,0.000000 28.000000,0.000000 29.000000,0.000000 30.000000,0.000000 31.000000,0.000000 32.000000,0.000000 33.000000,0.000000 34.000000,0.000000 35.000000,0.000000 36.000000,0.000000 37.000000,0.000000 38.000000,0.000000 39.000000,0.000000 40.000000,0.000000 41.000000,0.000000 42.000000,0.000000 43.000000,0.000000 44.000000,0.000000 45.000000,0.000000 46.000000,0.000000 47.000000,0.000000 48.000000,0.000000 49.000000,0.000000 50.000000,0.000000 51.000000,0.000000 52.000000,0.000000 53.000000,0.000000 54.000000,0.000000 55.000000,0.000000 56.000000,0.000000 57.000000,0.000000 58.000000,0.000000 59.000000,0.000000 60.000000,0.000000 61.000000,0.000000 62.000000,0.000000 63.000000,0.000000 64.000000,0.000000 65.000000,0.000000 66.000000,0.000000 67.000000,0.000000 68.000000,0.000000 69.000000,0.000000 70.000000,0.000000 71.000000,0.000000 72.000000,0.000000 73.000000,0.000000 74.000000,0.000000 75.000000,0.000000 76.000000,0.000000 77.000000,0.000000 78.000000,0.000000 79.000000,0.000000 80.000000,0.000000 81.000000,0.000000 82.000000,0.000000 83.000000,0.000000 84.000000,0.000000 85.000000,0.000000 86.000000,0.000000 87.000000,0.000000 88.000000,0.000000 89.000000,0.000000 90.000000,0.000000 91.000000,0.000000 92.000000,0.000000 93.000000,0.000000 94.000000,0.000000 95.000000,0.000000 96.000000,0.000000 97.000000,0.000000 98.000000,0.000000 99.000000,0.000000 100.000000,0.000000 101.000000,0.000000 102.000000,0.000000 103.000000,0.000000 104.000000,0.000000 105.000000,0.000000 106.000000,0.000000 107.000000,0.000000 108.000000,0.000000 109.000000,0.000000 110.000000,0.000000 111.000000,0.000000 112.000000,0.000000 113.000000,0.000000 114.000000,0.000000 115.000000,0.000000 116.000000,0.000000 117.000000,0.000000 118.000000,0.000000 119.000000,0.000000 120.000000,0.000000 121.000000,0.000000 122.000000,0.000000 123.000000,0.000000 124.000000,0.000000 125.000000,0.000000 126.000000,0.000000 127.000000,0.000000 128.000000,0.000000 129.000000,0.000000 130.000000,0.000000 131.000000,0.000000 132.000000,0.000000 133.000000,0.000000 134.000000,0.000000 135.000000,0.000000 136.000000,0.000000 137.000000,0.000000 138.000000,0.000000 139.000000,0.000000 140.000000,0.000000 141.000000,0.000000 142.000000,0.000000 143.000000,0.000000 144.000000,0.000000 145.000000,0.000000 146.000000,0.000000 147.000000,0.000000 148.000000,0.000000 149.000000,0.000000 "/>
    </edge>
    <edge id="B4" from="node3" to="node4" priority="1">
        <lane index="0" speed="33.333333" length="100" shape="150.000000,0.000000 151.000000,0.000004 152.000000,0.000033 153.000000,0.000112 154.000000,0.000267 155.000000,0.000521 156.000000,0.000900 157.000000,0.001429 157.999999,0.002133 158.999999,0.003037 159.999998,0.004167 160.999997,0.005546 161.999996,0.007200 162.999994,0.009154 163.999992,0.011433 164.999988,0.014062 165.999984,0.017067 166.999978,0.020471 167.999970,0.024300 168.999961,0.028579 169.999950,0.033333 170.999936,0.038587 171.999919,0.044367 172.999899,0.050696 173.999876,0.057600 174.999847,0.065104 175.999814,0.073233 176.999776,0.082012 177.999731,0.091467 178.999680,0.101621 179.999620,0.112500 180.999553,0.124129 181.999476,0.136533 182.999389,0.149738 183.999290,0.163767 184.999179,0.178646 185.999055,0.194400 186.998917,0.211054 187.998762,0.228633 188.998590,0.247163 189.998400,0.266667 190.998190,0.287171 191.997958,0.308700 192.997703,0.331279 193.997423,0.354933 194.997117,0.379687 195.996782,0.405567 196.996416,0.432596 197.996019,0.460800 198.995586,0.490204 199.995117,0.520833 200.994609,0.552713 201.994059,0.585867 202.993466,0.620321 203.992826,0.656100 204.992136,0.693229 205.991395,0.731733 206.990599,0.771637 207.989744,0.812967 208.988829,0.855746 209.987850,0.900000 210.986803,0.945754 211.985685,0.993033 212.984493,1.041862 213.983223,1.092267 214.981870,1.144271 215.980432,1.197900 216.978904,1.253179 217.977282,1.310133 218.975562,1.368788 219.973739,1.429167 220.971809,1.491296 221.969767,1.555200 222.967608,1.620904 224.032437,1.688433 225.030030,1.757813 226.027491,1.829067 227.024815,1.902221 228.021997,1.977300 229.019030,2.054329 230.015909,2.133333 231.012628,2.214337 232.009181,2.297367 233.005561,2.382446 234.001763,2.469600 234.997780,2.558854 235.993605,2.650233 236.989231,2.743763 237.984651,2.839467 238.979858,2.937371 239.974845,3.037500 240.969604,3.139879 242.031236,3.244533 243.025516,3.351487 244.019545,3.460767 245.013314,3.572396 246.006816,3.686400 247.000041,3.802804 247.992980,3.921633 248.985626,4.042912 "/>
    </edge>
    <edge id="C5" from="node4" to="node5" priority="1">
        <lane index="0" speed="33.333333" length="150" shape="249.843750,4.162016 250.835791,4.287931 251.827514,4.416326 252.818913,4.547199 253.809981,4.680551 254.800713,4.816380 255.791103,4.954685 256.781143,5.095466 257.770829,5.238721 258.760153,5.384450 259.749110,5.532652 260.737693,5.683326 261.725896,5.836471 262.713714,5.992086 263.701139,6.150170 264.688166,6.310722 265.674789,6.473741 266.661001,6.639226 267.646796,6.807176 268.632169,6.977591 269.617112,7.150468 270.601620,7.325807 271.585686,7.503606 272.569305,7.683865 273.552470,7.866583 274.535175,8.051758 275.517415,8.239389 276.499182,8.429475 277.480471,8.622015 278.461275,8.817008 279.441589,9.014452 280.421406,9.214346 281.400721,9.416689 282.379526,9.621480 283.357817,9.828717 284.335586,10.038400 285.312828,10.250526 286.289537,10.465094 287.265706,10.682104 288.241330,10.901553 289.216401,11.123440 290.190916,11.347765 291.164866,11.574525 292.138246,11.803720 293.111051,12.035347 294.083273,12.269405 295.054907,12.505893 296.025947,12.744810 296.996387,12.986153 297.966220,13.229922 298.935440,13.476115 299.904043,13.724729 300.872020,13.975765 301.839367,14.229220 302.806077,14.485092 303.772145,14.743380 304.737564,15.004083 305.702328,15.267198 306.666431,15.532725 307.629868,15.800661 308.592631,16.071004 309.554716,16.343754 310.516116,16.618908 311.476825,16.896465 312.436837,17.176422 313.396146,17.458779 314.354747,17.743533 315.312632,18.030683 316.269797,18.320226 317.226234,18.612162 318.181939,18.906488 319.136905,19.203202 320.091127,19.502302 321.044597,19.803787 321.997311,20.107655 322.949262,20.413904 323.900445,20.722532 324.850853,21.033536 325.800481,21.346916 326.749322,21.662669 327.697371,21.980793 328.644622,22.301286 329.591068,22.624146 330.536704,22.949371 331.481525,23.276959 332.425523,23.606909 333.368694,23.939217 334.311030,24.273882 335.252528,24.610902 336.193179,24.950275 337.132980,25.291998 338.071923,25.636070 339.010003,25.982488 339.947214,26.331250 340.883550,26.682354 341.819005,27.035798 342.753574,27.391579 343.687251,27.749695 344.620029,28.110145 345.551904,28.472925 346.482868,28.838034 347.412917,29.205470 348.342044,29.575229 349.270244,29.947310 350.197511,30.321710 351.123839,30.698427 352.049223,31.077459 352.973656,31.458803 353.897132,31.842458 354.819647,32.228419 355.741194,32.616686 356.661767,33.007255 357.581361,33.400124 358.499970,33.795292 359.417588,34.192754 360.334209,34.592509 361.249829,34.994555 362.164440,35.398888 363.078038,35.805507 363.990616,36.214409 364.902169,36.625590 365.812692,37.039049 366.722178,37.454783 367.630621,37.872790 368.538017,38.293066 369.444360,38.715610 370.349643,39.140418 371.253861,39.567488 372.157009,39.996817 373.059080,40.428403 373.960070,40.862242 374.859973,41.298333 375.758782,41.736672 376.656493,42.177257 377.553099,42.620084 378.448596,43.065152 379.342977,43.512457 380.236237,43.961997 381.128371,44.413768 382.019372,44.867768 382.909236,45.323995 383.797956,45.782444 384.685527,46.243114 385.571944,46.706002 386.457200,47.171104 387.341292,47.638417 388.224212,48.107940 389.105956,48.579668 389.986517,49.053599 390.865891,49.529730 391.744072,50.008059 "/>
    </edge>
</edges>
