<nodes>
    <node id="node0" x="-391.744072" y="-50.008059" type="priority"/>
    <node id="node1" x="-249.843750" y="-4.162016" type="priority"/>
    <node id="node2" x="-150.000000" y="0.000000" type="priority"/>
    <node id="node3" x="150.000000" y="0.000000" type="priority"/>
    <node id="node4" x="249.843750" y="4.162016" type="priority"/>
    <node id="node5" x="391.744072" y="50.008059" type="priority"/>
</nodes>
