<configuration>
	<input>
		<net-file value="Toyroute.net.xml"/>
		<route-files value="Toyroute.rou.xml"/>
	</input>
	
	<time>
		<begin value="0"/>
		<end value="600"/>
	</time>
</configuration>