<?xml version="1.0" encoding="UTF-8"?>

<!-- generated on 2022-08-28 12:50:20 by Eclipse SUMO netconvert Version 1.9.2
<configuration xmlns:xsi="http://www.w3.org/2001/XMLSchema-instance" xsi:noNamespaceSchemaLocation="http://sumo.dlr.de/xsd/netconvertConfiguration.xsd">

    <input>
        <node-files value="SUMORoute/ToyRoute.nod.xml"/>
        <edge-files value="SUMORoute/ToyRoute.edg.xml"/>
    </input>

    <output>
        <output-file value="SUMORoute/ToyRoute.net.xml"/>
    </output>

    <report>
        <aggregate-warnings value="5"/>
    </report>

</configuration>
-->

<net version="1.9" junctionCornerDetail="5" limitTurnSpeed="5.50" xmlns:xsi="http://www.w3.org/2001/XMLSchema-instance" xsi:noNamespaceSchemaLocation="http://sumo.dlr.de/xsd/net_file.xsd">

    <location netOffset="391.74,50.01" convBoundary="0.00,0.00,783.49,100.02" origBoundary="-391.74,-50.01,391.74,50.01" projParameter="!"/>

    <edge id=":node1_0" function="internal">
        <lane id=":node1_0_0" index="0" speed="33.33" length="0.30" shape="142.18,45.88 142.48,45.93"/>
    </edge>
    <edge id=":node2_0" function="internal">
        <lane id=":node2_0_0" index="0" speed="33.33" length="0.10" shape="241.74,50.01 241.74,50.01"/>
    </edge>
    <edge id=":node3_0" function="internal">
        <lane id=":node3_0_0" index="0" speed="33.33" length="0.10" shape="541.24,50.01 541.24,50.01"/>
    </edge>
    <edge id=":node4_0" function="internal">
        <lane id=":node4_0_0" index="0" speed="33.33" length="0.30" shape="641.01,54.09 641.31,54.13"/>
    </edge>

    <edge id="A3" from="node2" to="node3" priority="1">
        <lane id="A3_0" index="0" speed="33.33" length="299.50" customShape="1" shape="241.74,50.01 242.74,50.01 243.74,50.01 244.74,50.01 245.74,50.01 246.74,50.01 247.74,50.01 248.74,50.01 249.74,50.01 250.74,50.01 251.74,50.01 252.74,50.01 253.74,50.01 254.74,50.01 255.74,50.01 256.74,50.01 257.74,50.01 258.74,50.01 259.74,50.01 260.74,50.01 261.74,50.01 262.74,50.01 263.74,50.01 264.74,50.01 265.74,50.01 266.74,50.01 267.74,50.01 268.74,50.01 269.74,50.01 270.74,50.01 271.74,50.01 272.74,50.01 273.74,50.01 274.74,50.01 275.74,50.01 276.74,50.01 277.74,50.01 278.74,50.01 279.74,50.01 280.74,50.01 281.74,50.01 282.74,50.01 283.74,50.01 284.74,50.01 285.74,50.01 286.74,50.01 287.74,50.01 288.74,50.01 289.74,50.01 290.74,50.01 291.74,50.01 292.74,50.01 293.74,50.01 294.74,50.01 295.74,50.01 296.74,50.01 297.74,50.01 298.74,50.01 299.74,50.01 300.74,50.01 301.74,50.01 302.74,50.01 303.74,50.01 304.74,50.01 305.74,50.01 306.74,50.01 307.74,50.01 308.74,50.01 309.74,50.01 310.74,50.01 311.74,50.01 312.74,50.01 313.74,50.01 314.74,50.01 315.74,50.01 316.74,50.01 317.74,50.01 318.74,50.01 319.74,50.01 320.74,50.01 321.74,50.01 322.74,50.01 323.74,50.01 324.74,50.01 325.74,50.01 326.74,50.01 327.74,50.01 328.74,50.01 329.74,50.01 330.74,50.01 331.74,50.01 332.74,50.01 333.74,50.01 334.74,50.01 335.74,50.01 336.74,50.01 337.74,50.01 338.74,50.01 339.74,50.01 340.74,50.01 341.74,50.01 342.74,50.01 343.74,50.01 344.74,50.01 345.74,50.01 346.74,50.01 347.74,50.01 348.74,50.01 349.74,50.01 350.74,50.01 351.74,50.01 352.74,50.01 353.74,50.01 354.74,50.01 355.74,50.01 356.74,50.01 357.74,50.01 358.74,50.01 359.74,50.01 360.74,50.01 361.74,50.01 362.74,50.01 363.74,50.01 364.74,50.01 365.74,50.01 366.74,50.01 367.74,50.01 368.74,50.01 369.74,50.01 370.74,50.01 371.74,50.01 372.74,50.01 373.74,50.01 374.74,50.01 375.74,50.01 376.74,50.01 377.74,50.01 378.74,50.01 379.74,50.01 380.74,50.01 381.74,50.01 382.74,50.01 383.74,50.01 384.74,50.01 385.74,50.01 386.74,50.01 387.74,50.01 388.74,50.01 389.74,50.01 390.74,50.01 391.74,50.01 392.74,50.01 393.74,50.01 394.74,50.01 395.74,50.01 396.74,50.01 397.74,50.01 398.74,50.01 399.74,50.01 400.74,50.01 401.74,50.01 402.74,50.01 403.74,50.01 404.74,50.01 405.74,50.01 406.74,50.01 407.74,50.01 408.74,50.01 409.74,50.01 410.74,50.01 411.74,50.01 412.74,50.01 413.74,50.01 414.74,50.01 415.74,50.01 416.74,50.01 417.74,50.01 418.74,50.01 419.74,50.01 420.74,50.01 421.74,50.01 422.74,50.01 423.74,50.01 424.74,50.01 425.74,50.01 426.74,50.01 427.74,50.01 428.74,50.01 429.74,50.01 430.74,50.01 431.74,50.01 432.74,50.01 433.74,50.01 434.74,50.01 435.74,50.01 436.74,50.01 437.74,50.01 438.74,50.01 439.74,50.01 440.74,50.01 441.74,50.01 442.74,50.01 443.74,50.01 444.74,50.01 445.74,50.01 446.74,50.01 447.74,50.01 448.74,50.01 449.74,50.01 450.74,50.01 451.74,50.01 452.74,50.01 453.74,50.01 454.74,50.01 455.74,50.01 456.74,50.01 457.74,50.01 458.74,50.01 459.74,50.01 460.74,50.01 461.74,50.01 462.74,50.01 463.74,50.01 464.74,50.01 465.74,50.01 466.74,50.01 467.74,50.01 468.74,50.01 469.74,50.01 470.74,50.01 471.74,50.01 472.74,50.01 473.74,50.01 474.74,50.01 475.74,50.01 476.74,50.01 477.74,50.01 478.74,50.01 479.74,50.01 480.74,50.01 481.74,50.01 482.74,50.01 483.74,50.01 484.74,50.01 485.74,50.01 486.74,50.01 487.74,50.01 488.74,50.01 489.74,50.01 490.74,50.01 491.74,50.01 492.74,50.01 493.74,50.01 494.74,50.01 495.74,50.01 496.74,50.01 497.74,50.01 498.74,50.01 499.74,50.01 500.74,50.01 501.74,50.01 502.74,50.01 503.74,50.01 504.74,50.01 505.74,50.01 506.74,50.01 507.74,50.01 508.74,50.01 509.74,50.01 510.74,50.01 511.74,50.01 512.74,50.01 513.74,50.01 514.74,50.01 515.74,50.01 516.74,50.01 517.74,50.01 518.74,50.01 519.74,50.01 520.74,50.01 521.74,50.01 522.74,50.01 523.74,50.01 524.74,50.01 525.74,50.01 526.74,50.01 527.74,50.01 528.74,50.01 529.74,50.01 530.74,50.01 531.74,50.01 532.74,50.01 533.74,50.01 534.74,50.01 535.74,50.01 536.74,50.01 537.74,50.01 538.74,50.01 539.74,50.01 541.24,50.01"/>
    </edge>
    <edge id="B2" from="node1" to="node2" priority="1">
        <lane id="B2_0" index="0" speed="33.33" length="99.42" customShape="1" shape="142.48,45.93 143.75,46.09 144.74,46.21 145.74,46.32 146.73,46.44 147.72,46.55 148.72,46.66 149.71,46.76 150.77,46.87 151.77,46.97 152.76,47.07 153.76,47.17 154.75,47.26 155.75,47.36 156.75,47.45 157.74,47.54 158.74,47.63 159.73,47.71 160.73,47.79 161.73,47.87 162.73,47.95 163.72,48.03 164.72,48.11 165.72,48.18 166.71,48.25 167.71,48.32 168.78,48.39 169.77,48.45 170.77,48.52 171.77,48.58 172.77,48.64 173.77,48.70 174.77,48.75 175.76,48.81 176.76,48.86 177.76,48.92 178.76,48.97 179.76,49.02 180.76,49.06 181.76,49.11 182.76,49.15 183.75,49.20 184.75,49.24 185.75,49.28 186.75,49.31 187.75,49.35 188.75,49.39 189.75,49.42 190.75,49.46 191.75,49.49 192.75,49.52 193.75,49.55 194.75,49.58 195.75,49.60 196.75,49.63 197.75,49.65 198.75,49.68 199.75,49.70 200.75,49.72 201.75,49.74 202.75,49.76 203.75,49.78 204.75,49.80 205.75,49.81 206.74,49.83 207.74,49.84 208.74,49.86 209.74,49.87 210.74,49.88 211.74,49.90 212.74,49.91 213.74,49.92 214.74,49.93 215.74,49.93 216.74,49.94 217.74,49.95 218.74,49.96 219.74,49.96 220.74,49.97 221.74,49.97 222.74,49.98 223.74,49.98 224.74,49.99 225.74,49.99 226.74,49.99 227.74,50.00 228.74,50.00 229.74,50.00 230.74,50.00 231.74,50.00 232.74,50.01 233.74,50.01 234.74,50.01 235.74,50.01 236.74,50.01 237.74,50.01 238.74,50.01 239.74,50.01 240.74,50.01 241.74,50.01"/>
    </edge>
    <edge id="B4" from="node3" to="node4" priority="1">
        <lane id="B4_0" index="0" speed="33.33" length="99.92" customShape="1" shape="541.24,50.01 542.74,50.01 543.74,50.01 544.74,50.01 545.74,50.01 546.74,50.01 547.74,50.01 548.74,50.01 549.74,50.01 550.74,50.01 551.74,50.01 552.74,50.01 553.74,50.02 554.74,50.02 555.74,50.02 556.74,50.02 557.74,50.03 558.74,50.03 559.74,50.03 560.74,50.04 561.74,50.04 562.74,50.05 563.74,50.05 564.74,50.06 565.74,50.07 566.74,50.07 567.74,50.08 568.74,50.09 569.74,50.10 570.74,50.11 571.74,50.12 572.74,50.13 573.74,50.14 574.74,50.16 575.74,50.17 576.74,50.19 577.74,50.20 578.74,50.22 579.74,50.24 580.74,50.26 581.74,50.27 582.74,50.30 583.74,50.32 584.74,50.34 585.74,50.36 586.74,50.39 587.74,50.41 588.74,50.44 589.74,50.47 590.74,50.50 591.74,50.53 592.74,50.56 593.74,50.59 594.74,50.63 595.74,50.66 596.74,50.70 597.74,50.74 598.73,50.78 599.73,50.82 600.73,50.86 601.73,50.91 602.73,50.95 603.73,51.00 604.73,51.05 605.73,51.10 606.73,51.15 607.72,51.21 608.72,51.26 609.72,51.32 610.72,51.38 611.72,51.44 612.72,51.50 613.71,51.56 614.71,51.63 615.78,51.70 616.77,51.77 617.77,51.84 618.77,51.91 619.77,51.99 620.76,52.06 621.76,52.14 622.76,52.22 623.75,52.31 624.75,52.39 625.75,52.48 626.74,52.57 627.74,52.66 628.73,52.75 629.73,52.85 630.72,52.95 631.72,53.05 632.71,53.15 633.78,53.25 634.77,53.36 635.76,53.47 636.76,53.58 637.75,53.69 638.74,53.81 639.74,53.93 641.01,54.09"/>
    </edge>
    <edge id="C1" from="node0" to="node1" priority="1">
        <lane id="C1_0" index="0" speed="33.33" length="150.28" customShape="1" shape="0.00,0.00 0.88,0.48 1.76,0.95 2.64,1.43 3.52,1.90 4.40,2.37 5.29,2.84 6.17,3.30 7.06,3.76 7.95,4.23 8.83,4.68 9.72,5.14 10.62,5.59 11.51,6.05 12.40,6.50 13.30,6.94 14.19,7.39 15.09,7.83 15.99,8.27 16.88,8.71 17.78,9.15 18.68,9.58 19.59,10.01 20.49,10.44 21.39,10.87 22.30,11.29 23.21,11.71 24.11,12.14 25.02,12.55 25.93,12.97 26.84,13.38 27.75,13.79 28.67,14.20 29.58,14.61 30.49,15.01 31.41,15.42 32.33,15.82 33.24,16.21 34.16,16.61 35.08,17.00 36.00,17.39 36.92,17.78 37.85,18.17 38.77,18.55 39.69,18.93 40.62,19.31 41.55,19.69 42.47,20.06 43.40,20.43 44.33,20.80 45.26,21.17 46.19,21.54 47.12,21.90 48.06,22.26 48.99,22.62 49.93,22.97 50.86,23.33 51.80,23.68 52.73,24.03 53.67,24.37 54.61,24.72 55.55,25.06 56.49,25.40 57.43,25.73 58.38,26.07 59.32,26.40 60.26,26.73 61.21,27.06 62.15,27.38 63.10,27.71 64.05,28.03 64.99,28.35 65.94,28.66 66.89,28.97 67.84,29.29 68.79,29.59 69.75,29.90 70.70,30.20 71.65,30.51 72.61,30.80 73.56,31.10 74.52,31.40 75.47,31.69 76.43,31.98 77.39,32.26 78.35,32.55 79.31,32.83 80.27,33.11 81.23,33.39 82.19,33.66 83.15,33.94 84.11,34.21 85.08,34.48 86.04,34.74 87.01,35.00 87.97,35.26 88.94,35.52 89.90,35.78 90.87,36.03 91.84,36.28 92.81,36.53 93.78,36.78 94.75,37.02 95.72,37.26 96.69,37.50 97.66,37.74 98.63,37.97 99.61,38.20 100.58,38.43 101.55,38.66 102.53,38.88 103.50,39.11 104.48,39.33 105.45,39.54 106.43,39.76 107.41,39.97 108.39,40.18 109.36,40.39 110.34,40.59 111.32,40.79 112.30,40.99 113.28,41.19 114.26,41.39 115.24,41.58 116.23,41.77 117.21,41.96 118.19,42.14 119.17,42.32 120.16,42.50 121.14,42.68 122.13,42.86 123.11,43.03 124.10,43.20 125.08,43.37 126.07,43.53 127.06,43.70 128.04,43.86 129.03,44.02 130.02,44.17 131.01,44.32 131.99,44.48 132.98,44.62 133.97,44.77 134.96,44.91 135.95,45.05 136.94,45.19 137.93,45.33 138.93,45.46 139.92,45.59 140.91,45.72 142.18,45.88"/>
    </edge>
    <edge id="C5" from="node4" to="node5" priority="1">
        <lane id="C5_0" index="0" speed="33.33" length="150.28" customShape="1" shape="641.31,54.13 642.58,54.30 643.57,54.42 644.56,54.56 645.55,54.69 646.54,54.82 647.54,54.96 648.53,55.10 649.51,55.25 650.50,55.39 651.49,55.54 652.48,55.69 653.47,55.84 654.46,56.00 655.45,56.16 656.43,56.32 657.42,56.48 658.41,56.65 659.39,56.82 660.38,56.99 661.36,57.16 662.35,57.33 663.33,57.51 664.31,57.69 665.30,57.87 666.28,58.06 667.26,58.25 668.24,58.44 669.22,58.63 670.21,58.83 671.19,59.02 672.17,59.22 673.14,59.42 674.12,59.63 675.10,59.84 676.08,60.05 677.06,60.26 678.03,60.47 679.01,60.69 679.99,60.91 680.96,61.13 681.93,61.36 682.91,61.58 683.88,61.81 684.86,62.04 685.83,62.28 686.80,62.51 687.77,62.75 688.74,62.99 689.71,63.24 690.68,63.48 691.65,63.73 692.62,63.98 693.58,64.24 694.55,64.49 695.52,64.75 696.48,65.01 697.45,65.28 698.41,65.54 699.37,65.81 700.34,66.08 701.30,66.35 702.26,66.63 703.22,66.90 704.18,67.18 705.14,67.47 706.10,67.75 707.06,68.04 708.01,68.33 708.97,68.62 709.93,68.91 710.88,69.21 711.84,69.51 712.79,69.81 713.74,70.12 714.69,70.42 715.64,70.73 716.59,71.04 717.54,71.35 718.49,71.67 719.44,71.99 720.39,72.31 721.34,72.63 722.28,72.96 723.23,73.29 724.17,73.61 725.11,73.95 726.06,74.28 727.00,74.62 727.94,74.96 728.88,75.30 729.82,75.64 730.75,75.99 731.69,76.34 732.63,76.69 733.56,77.04 734.50,77.40 735.43,77.76 736.36,78.12 737.30,78.48 738.23,78.85 739.16,79.21 740.09,79.58 741.01,79.96 741.94,80.33 742.87,80.71 743.79,81.09 744.72,81.47 745.64,81.85 746.56,82.24 747.49,82.62 748.41,83.02 749.33,83.41 750.24,83.80 751.16,84.20 752.08,84.60 752.99,85.00 753.91,85.41 754.82,85.81 755.73,86.22 756.65,86.63 757.56,87.05 758.47,87.46 759.37,87.88 760.28,88.30 761.19,88.72 762.09,89.15 763.00,89.58 763.90,90.00 764.80,90.44 765.70,90.87 766.60,91.31 767.50,91.74 768.40,92.19 769.30,92.63 770.19,93.07 771.09,93.52 771.98,93.97 772.87,94.42 773.76,94.88 774.65,95.33 775.54,95.79 776.43,96.25 777.32,96.71 778.20,97.18 779.09,97.65 779.97,98.12 780.85,98.59 781.73,99.06 782.61,99.54 783.49,100.02"/>
    </edge>

    <junction id="node0" type="dead_end" x="0.00" y="0.00" incLanes="" intLanes="" shape="-0.77,1.41 0.77,-1.41"/>
    <junction id="node1" type="priority" x="141.90" y="45.85" incLanes="C1_0" intLanes=":node1_0_0" shape="142.28,47.52 142.67,44.34 142.38,44.29 141.98,47.47">
        <request index="0" response="0" foes="0" cont="0"/>
    </junction>
    <junction id="node2" type="priority" x="241.74" y="50.01" incLanes="B2_0" intLanes=":node2_0_0" shape="241.74,51.61 241.74,48.41 241.74,51.61">
        <request index="0" response="0" foes="0" cont="0"/>
    </junction>
    <junction id="node3" type="priority" x="541.74" y="50.01" incLanes="A3_0" intLanes=":node3_0_0" shape="541.24,51.61 541.24,48.41 541.24,51.61">
        <request index="0" response="0" foes="0" cont="0"/>
    </junction>
    <junction id="node4" type="priority" x="641.59" y="54.17" incLanes="B4_0" intLanes=":node4_0_0" shape="641.10,55.72 641.51,52.55 641.21,52.50 640.82,55.67">
        <request index="0" response="0" foes="0" cont="0"/>
    </junction>
    <junction id="node5" type="dead_end" x="783.49" y="100.02" incLanes="C5_0" intLanes="" shape="784.25,98.61 782.72,101.42"/>

    <connection from="A3" to="B4" fromLane="0" toLane="0" via=":node3_0_0" dir="s" state="M"/>
    <connection from="B2" to="A3" fromLane="0" toLane="0" via=":node2_0_0" dir="s" state="M"/>
    <connection from="B4" to="C5" fromLane="0" toLane="0" via=":node4_0_0" dir="s" state="M"/>
    <connection from="C1" to="B2" fromLane="0" toLane="0" via=":node1_0_0" dir="s" state="M"/>

    <connection from=":node1_0" to="B2" fromLane="0" toLane="0" dir="s" state="M"/>
    <connection from=":node2_0" to="A3" fromLane="0" toLane="0" dir="s" state="M"/>
    <connection from=":node3_0" to="B4" fromLane="0" toLane="0" dir="s" state="M"/>
    <connection from=":node4_0" to="C5" fromLane="0" toLane="0" dir="s" state="M"/>

</net>
