<routes>
    <vType id="car" accel="0.8" decel="4.5" sigma="0.1" length="5" maxSpeed="33.333" minGap="5" speedDev="0.1"/>
    <route id="route0" edges="C1 B2 A3 B4 C5"/>
    <vehicle id="1" type="car" route="route0" depart="0" departSpeed="19.865229"/>
    <vehicle id="2" type="car" route="route0" depart="3" departSpeed="22.134570"/>
    <vehicle id="3" type="car" route="route0" depart="8" departSpeed="18.461056"/>
    <vehicle id="4" type="car" route="route0" depart="9" departSpeed="19.585886"/>
    <vehicle id="5" type="car" route="route0" depart="13" departSpeed="18.365602"/>
    <vehicle id="6" type="car" route="route0" depart="16" departSpeed="19.764689"/>
    <vehicle id="7" type="car" route="route0" depart="19" departSpeed="21.593194"/>
    <vehicle id="8" type="car" route="route0" depart="20" departSpeed="21.504685"/>
    <vehicle id="9" type="car" route="route0" depart="24" departSpeed="19.656251"/>
    <vehicle id="10" type="car" route="route0" depart="26" departSpeed="18.250025"/>
    <vehicle id="11" type="car" route="route0" depart="27" departSpeed="20.601427"/>
    <vehicle id="12" type="car" route="route0" depart="30" departSpeed="18.533540"/>
    <vehicle id="13" type="car" route="route0" depart="31" departSpeed="20.465288"/>
    <vehicle id="14" type="car" route="route0" depart="32" departSpeed="19.136174"/>
    <vehicle id="15" type="car" route="route0" depart="34" departSpeed="18.723709"/>
    <vehicle id="16" type="car" route="route0" depart="35" departSpeed="19.429501"/>
    <vehicle id="17" type="car" route="route0" depart="39" departSpeed="22.587514"/>
    <vehicle id="18" type="car" route="route0" depart="42" departSpeed="19.099568"/>
    <vehicle id="19" type="car" route="route0" depart="43" departSpeed="22.027758"/>
    <vehicle id="20" type="car" route="route0" depart="50" departSpeed="16.182515"/>
    <vehicle id="21" type="car" route="route0" depart="56" departSpeed="18.380346"/>
    <vehicle id="22" type="car" route="route0" depart="57" departSpeed="20.947336"/>
    <vehicle id="23" type="car" route="route0" depart="60" departSpeed="17.491985"/>
    <vehicle id="24" type="car" route="route0" depart="71" departSpeed="18.543136"/>
    <vehicle id="25" type="car" route="route0" depart="72" departSpeed="19.271877"/>
    <vehicle id="26" type="car" route="route0" depart="77" departSpeed="21.752830"/>
    <vehicle id="27" type="car" route="route0" depart="83" departSpeed="21.570239"/>
    <vehicle id="28" type="car" route="route0" depart="88" departSpeed="18.372634"/>
    <vehicle id="29" type="car" route="route0" depart="91" departSpeed="21.140219"/>
    <vehicle id="30" type="car" route="route0" depart="100" departSpeed="20.806638"/>
    <vehicle id="31" type="car" route="route0" depart="103" departSpeed="17.345208"/>
    <vehicle id="32" type="car" route="route0" depart="112" departSpeed="18.144239"/>
    <vehicle id="33" type="car" route="route0" depart="113" departSpeed="19.361289"/>
    <vehicle id="34" type="car" route="route0" depart="114" departSpeed="15.484978"/>
    <vehicle id="35" type="car" route="route0" depart="120" departSpeed="20.809694"/>
    <vehicle id="36" type="car" route="route0" depart="123" departSpeed="20.511355"/>
    <vehicle id="37" type="car" route="route0" depart="124" departSpeed="23.760013"/>
    <vehicle id="38" type="car" route="route0" depart="125" departSpeed="18.968794"/>
    <vehicle id="39" type="car" route="route0" depart="127" departSpeed="18.905128"/>
    <vehicle id="40" type="car" route="route0" depart="128" departSpeed="17.061796"/>
    <vehicle id="41" type="car" route="route0" depart="131" departSpeed="18.916830"/>
    <vehicle id="42" type="car" route="route0" depart="132" departSpeed="20.351560"/>
    <vehicle id="43" type="car" route="route0" depart="134" departSpeed="19.779415"/>
    <vehicle id="44" type="car" route="route0" depart="135" departSpeed="20.920944"/>
    <vehicle id="45" type="car" route="route0" depart="138" departSpeed="21.242311"/>
    <vehicle id="46" type="car" route="route0" depart="140" departSpeed="19.395450"/>
    <vehicle id="47" type="car" route="route0" depart="143" departSpeed="22.836395"/>
    <vehicle id="48" type="car" route="route0" depart="144" departSpeed="20.077948"/>
    <vehicle id="49" type="car" route="route0" depart="147" departSpeed="20.949796"/>
    <vehicle id="50" type="car" route="route0" depart="150" departSpeed="19.123190"/>
    <vehicle id="51" type="car" route="route0" depart="151" departSpeed="18.191661"/>
    <vehicle id="52" type="car" route="route0" depart="152" departSpeed="20.678800"/>
    <vehicle id="53" type="car" route="route0" depart="154" departSpeed="20.753433"/>
    <vehicle id="54" type="car" route="route0" depart="158" departSpeed="19.637350"/>
    <vehicle id="55" type="car" route="route0" depart="162" departSpeed="18.718239"/>
    <vehicle id="56" type="car" route="route0" depart="166" departSpeed="19.362263"/>
    <vehicle id="57" type="car" route="route0" depart="168" departSpeed="21.657337"/>
    <vehicle id="58" type="car" route="route0" depart="169" departSpeed="22.046484"/>
    <vehicle id="59" type="car" route="route0" depart="172" departSpeed="19.125932"/>
    <vehicle id="60" type="car" route="route0" depart="174" departSpeed="18.934499"/>
    <vehicle id="61" type="car" route="route0" depart="178" departSpeed="21.495543"/>
    <vehicle id="62" type="car" route="route0" depart="179" departSpeed="20.683956"/>
    <vehicle id="63" type="car" route="route0" depart="181" departSpeed="21.743389"/>
    <vehicle id="64" type="car" route="route0" depart="185" departSpeed="19.588542"/>
    <vehicle id="65" type="car" route="route0" depart="192" departSpeed="19.129286"/>
    <vehicle id="66" type="car" route="route0" depart="195" departSpeed="19.634677"/>
    <vehicle id="67" type="car" route="route0" depart="196" departSpeed="22.453226"/>
    <vehicle id="68" type="car" route="route0" depart="198" departSpeed="19.382727"/>
    <vehicle id="69" type="car" route="route0" depart="200" departSpeed="20.075422"/>
    <vehicle id="70" type="car" route="route0" depart="203" departSpeed="20.603665"/>
    <vehicle id="71" type="car" route="route0" depart="204" departSpeed="19.640607"/>
    <vehicle id="72" type="car" route="route0" depart="205" departSpeed="19.403092"/>
    <vehicle id="73" type="car" route="route0" depart="209" departSpeed="17.476811"/>
    <vehicle id="74" type="car" route="route0" depart="218" departSpeed="19.653350"/>
    <vehicle id="75" type="car" route="route0" depart="220" departSpeed="19.267221"/>
    <vehicle id="76" type="car" route="route0" depart="221" departSpeed="23.177691"/>
    <vehicle id="77" type="car" route="route0" depart="223" departSpeed="20.430161"/>
    <vehicle id="78" type="car" route="route0" depart="229" departSpeed="19.293269"/>
    <vehicle id="79" type="car" route="route0" depart="234" departSpeed="19.721633"/>
    <vehicle id="80" type="car" route="route0" depart="236" departSpeed="21.681889"/>
    <vehicle id="81" type="car" route="route0" depart="237" departSpeed="21.990779"/>
    <vehicle id="82" type="car" route="route0" depart="238" departSpeed="20.498856"/>
    <vehicle id="83" type="car" route="route0" depart="247" departSpeed="20.641231"/>
    <vehicle id="84" type="car" route="route0" depart="248" departSpeed="21.653001"/>
    <vehicle id="85" type="car" route="route0" depart="249" departSpeed="19.310716"/>
    <vehicle id="86" type="car" route="route0" depart="254" departSpeed="19.938680"/>
    <vehicle id="87" type="car" route="route0" depart="257" departSpeed="19.656235"/>
    <vehicle id="88" type="car" route="route0" depart="259" departSpeed="18.765344"/>
    <vehicle id="89" type="car" route="route0" depart="260" departSpeed="20.948564"/>
    <vehicle id="90" type="car" route="route0" depart="262" departSpeed="17.817633"/>
    <vehicle id="91" type="car" route="route0" depart="263" departSpeed="18.702628"/>
    <vehicle id="92" type="car" route="route0" depart="266" departSpeed="17.681020"/>
    <vehicle id="93" type="car" route="route0" depart="267" departSpeed="18.943493"/>
    <vehicle id="94" type="car" route="route0" depart="268" departSpeed="19.949146"/>
    <vehicle id="95" type="car" route="route0" depart="270" departSpeed="19.012569"/>
    <vehicle id="96" type="car" route="route0" depart="275" departSpeed="19.957564"/>
    <vehicle id="97" type="car" route="route0" depart="276" departSpeed="19.480093"/>
    <vehicle id="98" type="car" route="route0" depart="278" departSpeed="21.504181"/>
    <vehicle id="99" type="car" route="route0" depart="280" departSpeed="20.963708"/>
    <vehicle id="100" type="car" route="route0" depart="281" departSpeed="20.080359"/>
    <vehicle id="101" type="car" route="route0" depart="283" departSpeed="21.016259"/>
    <vehicle id="102" type="car" route="route0" depart="286" departSpeed="21.172113"/>
    <vehicle id="103" type="car" route="route0" depart="287" departSpeed="20.318968"/>
    <vehicle id="104" type="car" route="route0" depart="291" departSpeed="19.194841"/>
    <vehicle id="105" type="car" route="route0" depart="292" departSpeed="18.564951"/>
    <vehicle id="106" type="car" route="route0" depart="298" departSpeed="18.471349"/>
    <vehicle id="107" type="car" route="route0" depart="300" departSpeed="19.038114"/>
    <vehicle id="108" type="car" route="route0" depart="301" departSpeed="23.268319"/>
    <vehicle id="109" type="car" route="route0" depart="302" departSpeed="20.382784"/>
    <vehicle id="110" type="car" route="route0" depart="303" departSpeed="22.430993"/>
    <vehicle id="111" type="car" route="route0" depart="310" departSpeed="19.219032"/>
    <vehicle id="112" type="car" route="route0" depart="311" departSpeed="21.243738"/>
    <vehicle id="113" type="car" route="route0" depart="312" departSpeed="17.936862"/>
    <vehicle id="114" type="car" route="route0" depart="315" departSpeed="22.287310"/>
    <vehicle id="115" type="car" route="route0" depart="320" departSpeed="18.111672"/>
    <vehicle id="116" type="car" route="route0" depart="321" departSpeed="19.274366"/>
    <vehicle id="117" type="car" route="route0" depart="322" departSpeed="22.057447"/>
    <vehicle id="118" type="car" route="route0" depart="323" departSpeed="16.926041"/>
    <vehicle id="119" type="car" route="route0" depart="325" departSpeed="22.599899"/>
    <vehicle id="120" type="car" route="route0" depart="326" departSpeed="20.354282"/>
    <vehicle id="121" type="car" route="route0" depart="328" departSpeed="22.180560"/>
    <vehicle id="122" type="car" route="route0" depart="332" departSpeed="17.480279"/>
    <vehicle id="123" type="car" route="route0" depart="335" departSpeed="18.337490"/>
    <vehicle id="124" type="car" route="route0" depart="337" departSpeed="21.405811"/>
    <vehicle id="125" type="car" route="route0" depart="341" departSpeed="20.115379"/>
    <vehicle id="126" type="car" route="route0" depart="342" departSpeed="22.370800"/>
    <vehicle id="127" type="car" route="route0" depart="345" departSpeed="19.795135"/>
    <vehicle id="128" type="car" route="route0" depart="347" departSpeed="18.903733"/>
    <vehicle id="129" type="car" route="route0" depart="349" departSpeed="22.267488"/>
    <vehicle id="130" type="car" route="route0" depart="350" departSpeed="22.149241"/>
    <vehicle id="131" type="car" route="route0" depart="357" departSpeed="21.693210"/>
    <vehicle id="132" type="car" route="route0" depart="359" departSpeed="20.495206"/>
    <vehicle id="133" type="car" route="route0" depart="362" departSpeed="20.636501"/>
    <vehicle id="134" type="car" route="route0" depart="363" departSpeed="20.024878"/>
    <vehicle id="135" type="car" route="route0" depart="372" departSpeed="20.653746"/>
    <vehicle id="136" type="car" route="route0" depart="373" departSpeed="17.716511"/>
    <vehicle id="137" type="car" route="route0" depart="377" departSpeed="21.356995"/>
    <vehicle id="138" type="car" route="route0" depart="379" departSpeed="21.363004"/>
    <vehicle id="139" type="car" route="route0" depart="380" departSpeed="19.697261"/>
    <vehicle id="140" type="car" route="route0" depart="381" departSpeed="20.964273"/>
    <vehicle id="141" type="car" route="route0" depart="386" departSpeed="19.249342"/>
    <vehicle id="142" type="car" route="route0" depart="387" departSpeed="19.893318"/>
    <vehicle id="143" type="car" route="route0" depart="394" departSpeed="19.083106"/>
    <vehicle id="144" type="car" route="route0" depart="397" departSpeed="20.254913"/>
    <vehicle id="145" type="car" route="route0" depart="402" departSpeed="18.676242"/>
    <vehicle id="146" type="car" route="route0" depart="404" departSpeed="20.814253"/>
    <vehicle id="147" type="car" route="route0" depart="405" departSpeed="18.492456"/>
    <vehicle id="148" type="car" route="route0" depart="408" departSpeed="19.727843"/>
    <vehicle id="149" type="car" route="route0" depart="411" departSpeed="18.404460"/>
    <vehicle id="150" type="car" route="route0" depart="422" departSpeed="19.935787"/>
    <vehicle id="151" type="car" route="route0" depart="423" departSpeed="21.336795"/>
    <vehicle id="152" type="car" route="route0" depart="424" departSpeed="17.548930"/>
    <vehicle id="153" type="car" route="route0" depart="427" departSpeed="19.837227"/>
    <vehicle id="154" type="car" route="route0" depart="432" departSpeed="21.371083"/>
    <vehicle id="155" type="car" route="route0" depart="434" departSpeed="20.374063"/>
    <vehicle id="156" type="car" route="route0" depart="438" departSpeed="18.984137"/>
    <vehicle id="157" type="car" route="route0" depart="441" departSpeed="21.077057"/>
    <vehicle id="158" type="car" route="route0" depart="452" departSpeed="23.088520"/>
    <vehicle id="159" type="car" route="route0" depart="453" departSpeed="17.163550"/>
    <vehicle id="160" type="car" route="route0" depart="454" departSpeed="18.725352"/>
    <vehicle id="161" type="car" route="route0" depart="457" departSpeed="21.262391"/>
    <vehicle id="162" type="car" route="route0" depart="460" departSpeed="20.646531"/>
    <vehicle id="163" type="car" route="route0" depart="461" departSpeed="19.428051"/>
    <vehicle id="164" type="car" route="route0" depart="462" departSpeed="19.724256"/>
    <vehicle id="165" type="car" route="route0" depart="464" departSpeed="20.115762"/>
    <vehicle id="166" type="car" route="route0" depart="465" departSpeed="20.566273"/>
    <vehicle id="167" type="car" route="route0" depart="467" departSpeed="19.773794"/>
    <vehicle id="168" type="car" route="route0" depart="471" departSpeed="18.032915"/>
    <vehicle id="169" type="car" route="route0" depart="472" departSpeed="18.500946"/>
    <vehicle id="170" type="car" route="route0" depart="474" departSpeed="17.739742"/>
    <vehicle id="171" type="car" route="route0" depart="476" departSpeed="19.728247"/>
    <vehicle id="172" type="car" route="route0" depart="487" departSpeed="19.584107"/>
    <vehicle id="173" type="car" route="route0" depart="488" departSpeed="19.631679"/>
    <vehicle id="174" type="car" route="route0" depart="490" departSpeed="20.032410"/>
    <vehicle id="175" type="car" route="route0" depart="496" departSpeed="20.593608"/>
    <vehicle id="176" type="car" route="route0" depart="499" departSpeed="20.241434"/>
    <vehicle id="177" type="car" route="route0" depart="503" departSpeed="22.876169"/>
    <vehicle id="178" type="car" route="route0" depart="506" departSpeed="21.095812"/>
    <vehicle id="179" type="car" route="route0" depart="513" departSpeed="19.168441"/>
    <vehicle id="180" type="car" route="route0" depart="514" departSpeed="19.778474"/>
    <vehicle id="181" type="car" route="route0" depart="515" departSpeed="19.618019"/>
    <vehicle id="182" type="car" route="route0" depart="526" departSpeed="20.746050"/>
    <vehicle id="183" type="car" route="route0" depart="527" departSpeed="19.163339"/>
    <vehicle id="184" type="car" route="route0" depart="531" departSpeed="20.287888"/>
    <vehicle id="185" type="car" route="route0" depart="555" departSpeed="21.415145"/>
    <vehicle id="186" type="car" route="route0" depart="559" departSpeed="21.356009"/>
    <vehicle id="187" type="car" route="route0" depart="563" departSpeed="20.759383"/>
    <vehicle id="188" type="car" route="route0" depart="569" departSpeed="20.993723"/>
    <vehicle id="189" type="car" route="route0" depart="576" departSpeed="20.642724"/>
    <vehicle id="190" type="car" route="route0" depart="577" departSpeed="20.101569"/>
    <vehicle id="191" type="car" route="route0" depart="579" departSpeed="19.638613"/>
    <vehicle id="192" type="car" route="route0" depart="580" departSpeed="18.493539"/>
    <vehicle id="193" type="car" route="route0" depart="586" departSpeed="20.238209"/>
    <vehicle id="194" type="car" route="route0" depart="590" departSpeed="20.696021"/>
    <vehicle id="195" type="car" route="route0" depart="592" departSpeed="19.601200"/>
    <vehicle id="196" type="car" route="route0" depart="594" departSpeed="21.795844"/>
    <vehicle id="197" type="car" route="route0" depart="597" departSpeed="17.580076"/>
    <vehicle id="198" type="car" route="route0" depart="598" departSpeed="21.821957"/>
</routes>
